OPT_V8/Irradiation_fixed_800_w_exp_2003-1223/network_debug.txt
Pandapower Network Debug Info
==================================================

BUS:
          name  vn_kv type  zone  in_service
0        Bus 8    0.4    b  None        True
1        Bus 9    0.4    b  None        True
2       Bus 10    0.4    b  None        True
3       Bus 11    0.4    b  None        True
4       Bus 16    0.4    b  None        True
5       Bus 17    0.4    b  None        True
6       Bus 18    0.4    b  None        True
7       Bus 19    0.4    b  None        True
8       Bus 20    0.4    b  None        True
9       Bus 21   15.0    b  None        True
10      Bus 22   15.0    b  None        True
11      Bus 23   15.0    b  None        True
12      Bus 24   15.0    b  None        True
13      Bus 25   15.0    b  None        True
14      Bus 26   15.0    b  None        True
15    Sub MV 2   15.0    b  None        True
16    Sub LV 2    0.4    b  None        True
17    Sub MV 5   15.0    b  None        True
18    Sub LV 5    0.4    b  None        True
19  Slack HV 0   70.0    b  None        True
20  Slack MV 0   15.0    b  None        True
21  Slack HV 1   70.0    b  None        True
22  Slack MV 1   15.0    b  None        True
--------------------------------------------------

LOAD:
          name  bus      p_mw    q_mvar  const_z_percent  const_i_percent  sn_mva  scaling  in_service type
0    Load 8 T1    0  0.001191  0.001168              0.0              0.0     NaN      1.0        True  wye
1    Load 8 T2    0  0.000822  0.000864              0.0              0.0     NaN      1.0        True  wye
2    Load 8 T3    0  0.001090  0.001198              0.0              0.0     NaN      1.0        True  wye
3    Load 8 T4    0  0.000994  0.000965              0.0              0.0     NaN      1.0        True  wye
4    Load 8 T5    0  0.001177  0.000873              0.0              0.0     NaN      1.0        True  wye
5    Load 8 T6    0  0.000963  0.000938              0.0              0.0     NaN      1.0        True  wye
6    Load 9 T1    1  0.001221  0.001819              0.0              0.0     NaN      1.0        True  wye
7    Load 9 T2    1  0.001432  0.002223              0.0              0.0     NaN      1.0        True  wye
8    Load 9 T3    1  0.001207  0.001933              0.0              0.0     NaN      1.0        True  wye
9    Load 9 T4    1  0.001242  0.002286              0.0              0.0     NaN      1.0        True  wye
10   Load 9 T5    1  0.001302  0.002319              0.0              0.0     NaN      1.0        True  wye
11   Load 9 T6    1  0.001338  0.002316              0.0              0.0     NaN      1.0        True  wye
12  Load 10 T1    2  0.002061  0.003036              0.0              0.0     NaN      1.0        True  wye
13  Load 10 T2    2  0.002137  0.002616              0.0              0.0     NaN      1.0        True  wye
14  Load 10 T3    2  0.002305  0.002511              0.0              0.0     NaN      1.0        True  wye
15  Load 10 T4    2  0.002035  0.002621              0.0              0.0     NaN      1.0        True  wye
16  Load 10 T5    2  0.001714  0.003237              0.0              0.0     NaN      1.0        True  wye
17  Load 10 T6    2  0.002016  0.003375              0.0              0.0     NaN      1.0        True  wye
18  Load 11 T1    3  0.002427  0.003474              0.0              0.0     NaN      1.0        True  wye
19  Load 11 T2    3  0.002028  0.003397              0.0              0.0     NaN      1.0        True  wye
20  Load 11 T3    3  0.002004  0.003488              0.0              0.0     NaN      1.0        True  wye
21  Load 11 T4    3  0.002655  0.003406              0.0              0.0     NaN      1.0        True  wye
22  Load 11 T5    3  0.002530  0.004159              0.0              0.0     NaN      1.0        True  wye
23  Load 11 T6    3  0.002457  0.003691              0.0              0.0     NaN      1.0        True  wye
24  Load 16 T1    4  0.002915  0.005706              0.0              0.0     NaN      1.0        True  wye
25  Load 16 T2    4  0.003057  0.005640              0.0              0.0     NaN      1.0        True  wye
26  Load 16 T3    4  0.003293  0.004906              0.0              0.0     NaN      1.0        True  wye
27  Load 16 T4    4  0.003337  0.005904              0.0              0.0     NaN      1.0        True  wye
28  Load 16 T5    4  0.002580  0.005625              0.0              0.0     NaN      1.0        True  wye
29  Load 16 T6    4  0.003552  0.004478              0.0              0.0     NaN      1.0        True  wye
30  Load 17 T1    5  0.003989  0.006394              0.0              0.0     NaN      1.0        True  wye
31  Load 17 T2    5  0.003854  0.005151              0.0              0.0     NaN      1.0        True  wye
32  Load 17 T3    5  0.004059  0.006538              0.0              0.0     NaN      1.0        True  wye
33  Load 17 T4    5  0.003541  0.006966              0.0              0.0     NaN      1.0        True  wye
34  Load 17 T5    5  0.003740  0.005692              0.0              0.0     NaN      1.0        True  wye
35  Load 17 T6    5  0.002906  0.004968              0.0              0.0     NaN      1.0        True  wye
36  Load 18 T1    6  0.001208  0.000860              0.0              0.0     NaN      1.0        True  wye
37  Load 18 T2    6  0.001035  0.000983              0.0              0.0     NaN      1.0        True  wye
38  Load 18 T3    6  0.001315  0.000818              0.0              0.0     NaN      1.0        True  wye
39  Load 18 T4    6  0.001253  0.001019              0.0              0.0     NaN      1.0        True  wye
40  Load 18 T5    6  0.001200  0.001117              0.0              0.0     NaN      1.0        True  wye
41  Load 18 T6    6  0.001282  0.000862              0.0              0.0     NaN      1.0        True  wye
42  Load 19 T1    7  0.002156  0.002221              0.0              0.0     NaN      1.0        True  wye
43  Load 19 T2    7  0.001673  0.001809              0.0              0.0     NaN      1.0        True  wye
44  Load 19 T3    7  0.001590  0.002205              0.0              0.0     NaN      1.0        True  wye
45  Load 19 T4    7  0.001622  0.002310              0.0              0.0     NaN      1.0        True  wye
46  Load 19 T5    7  0.002040  0.002278              0.0              0.0     NaN      1.0        True  wye
47  Load 19 T6    7  0.001498  0.001754              0.0              0.0     NaN      1.0        True  wye
48  Load 20 T1    8  0.002039  0.002667              0.0              0.0     NaN      1.0        True  wye
49  Load 20 T2    8  0.002530  0.003244              0.0              0.0     NaN      1.0        True  wye
50  Load 20 T3    8  0.002020  0.002792              0.0              0.0     NaN      1.0        True  wye
51  Load 20 T4    8  0.001909  0.002622              0.0              0.0     NaN      1.0        True  wye
52  Load 20 T5    8  0.002117  0.003522              0.0              0.0     NaN      1.0        True  wye
53  Load 20 T6    8  0.001836  0.002713              0.0              0.0     NaN      1.0        True  wye
54  Load 21 T1    9  0.010736  0.009072              0.0              0.0     NaN      1.0        True  wye
55  Load 21 T2    9  0.010225  0.010623              0.0              0.0     NaN      1.0        True  wye
56  Load 21 T3    9  0.010594  0.010029              0.0              0.0     NaN      1.0        True  wye
57  Load 21 T4    9  0.010324  0.011691              0.0              0.0     NaN      1.0        True  wye
58  Load 21 T5    9  0.011365  0.008465              0.0              0.0     NaN      1.0        True  wye
59  Load 21 T6    9  0.010775  0.009808              0.0              0.0     NaN      1.0        True  wye
60  Load 22 T1   10  0.009098  0.008148              0.0              0.0     NaN      1.0        True  wye
61  Load 22 T2   10  0.012001  0.009066              0.0              0.0     NaN      1.0        True  wye
62  Load 22 T3   10  0.012759  0.010141              0.0              0.0     NaN      1.0        True  wye
63  Load 22 T4   10  0.011480  0.008328              0.0              0.0     NaN      1.0        True  wye
64  Load 22 T5   10  0.009051  0.008079              0.0              0.0     NaN      1.0        True  wye
65  Load 22 T6   10  0.012215  0.007620              0.0              0.0     NaN      1.0        True  wye
66  Load 23 T1   11  0.010090  0.012223              0.0              0.0     NaN      1.0        True  wye
67  Load 23 T2   11  0.012934  0.009966              0.0              0.0     NaN      1.0        True  wye
68  Load 23 T3   11  0.013583  0.011132              0.0              0.0     NaN      1.0        True  wye
69  Load 23 T4   11  0.009867  0.011802              0.0              0.0     NaN      1.0        True  wye
70  Load 23 T5   11  0.012133  0.011090              0.0              0.0     NaN      1.0        True  wye
71  Load 23 T6   11  0.013402  0.013196              0.0              0.0     NaN      1.0        True  wye
72  Load 24 T1   12  0.011863  0.005384              0.0              0.0     NaN      1.0        True  wye
73  Load 24 T2   12  0.008501  0.006687              0.0              0.0     NaN      1.0        True  wye
74  Load 24 T3   12  0.008099  0.006711              0.0              0.0     NaN      1.0        True  wye
75  Load 24 T4   12  0.010359  0.004832              0.0              0.0     NaN      1.0        True  wye
76  Load 24 T5   12  0.010315  0.005095              0.0              0.0     NaN      1.0        True  wye
77  Load 24 T6   12  0.009062  0.006527              0.0              0.0     NaN      1.0        True  wye
78  Load 25 T1   13  0.010339  0.010586              0.0              0.0     NaN      1.0        True  wye
79  Load 25 T2   13  0.014156  0.011062              0.0              0.0     NaN      1.0        True  wye
80  Load 25 T3   13  0.011182  0.008327              0.0              0.0     NaN      1.0        True  wye
81  Load 25 T4   13  0.009972  0.009887              0.0              0.0     NaN      1.0        True  wye
82  Load 25 T5   13  0.011576  0.011609              0.0              0.0     NaN      1.0        True  wye
83  Load 25 T6   13  0.011548  0.009945              0.0              0.0     NaN      1.0        True  wye
84  Load 26 T1   14  0.015081  0.011070              0.0              0.0     NaN      1.0        True  wye
85  Load 26 T2   14  0.014582  0.012019              0.0              0.0     NaN      1.0        True  wye
86  Load 26 T3   14  0.013785  0.012168              0.0              0.0     NaN      1.0        True  wye
87  Load 26 T4   14  0.010973  0.013300              0.0              0.0     NaN      1.0        True  wye
88  Load 26 T5   14  0.015512  0.012190              0.0              0.0     NaN      1.0        True  wye
89  Load 26 T6   14  0.011966  0.014022              0.0              0.0     NaN      1.0        True  wye
--------------------------------------------------

EXT_GRID:
        name  bus  vm_pu  va_degree  slack_weight  in_service
0  ExtGrid 0   19    1.0        0.0           1.0        True
1  ExtGrid 1   21    1.0        0.0           1.0        True
--------------------------------------------------

LINE:
       name std_type  from_bus  to_bus  length_km  r_ohm_per_km  x_ohm_per_km  c_nf_per_km  g_us_per_km  max_i_ka   df  parallel  type  in_service
0    Line 0     None        20      15   0.400000        0.5502         0.429          0.0          0.0      0.23  1.0         1  None        True
1    Line 7     None        22      17   1.100000        0.5502         0.429          0.0          0.0      0.23  1.0         1  None        True
2    Line 8     None        15       9   0.316228        0.5502         0.429          0.0          0.0      0.23  1.0         1  None        True
3   Line 17     None        17      12   0.141421        0.5502         0.429          0.0          0.0      0.23  1.0         1  None        True
4   Line 18     None        17      13   0.223607        0.5502         0.429          0.0          0.0      0.23  1.0         1  None        True
5   Line 20     None        16       0   0.136015        0.5502         0.429          0.0          0.0      0.23  1.0         1  None        True
6   Line 34     None        18       5   0.225610        0.5502         0.429          0.0          0.0      0.23  1.0         1  None        True
7   Line 36     None        18       7   0.196469        0.5502         0.429          0.0          0.0      0.23  1.0         1  None        True
8   Line 37     None        18       8   0.050000        0.5502         0.429          0.0          0.0      0.23  1.0         1  None        True
9   Line 38     None        10       9   0.141421        0.5502         0.429          0.0          0.0      0.23  1.0         1  None        True
10  Line 40     None        11      10   0.200000        0.5502         0.429          0.0          0.0      0.23  1.0         1  None        True
11  Line 43     None        14      13   0.200000        0.5502         0.429          0.0          0.0      0.23  1.0         1  None        True
12  Line 44     None         1       0   0.172047        0.5502         0.429          0.0          0.0      0.23  1.0         1  None        True
13  Line 46     None         3       0   0.194165        0.5502         0.429          0.0          0.0      0.23  1.0         1  None        True
14  Line 47     None         2       1   0.263059        0.5502         0.429          0.0          0.0      0.23  1.0         1  None        True
15  Line 52     None         8       4   0.353836        0.5502         0.429          0.0          0.0      0.23  1.0         1  None        True
16  Line 53     None         6       5   0.253180        0.5502         0.429          0.0          0.0      0.23  1.0         1  None        True
--------------------------------------------------

TRAFO:
                  name std_type  hv_bus  lv_bus  sn_mva  vn_hv_kv  vn_lv_kv  vk_percent  vkr_percent  pfe_kw  i0_percent  shift_degree tap_side  tap_neutral  tap_min  tap_max  tap_step_percent  tap_step_degree  tap_pos  tap_phase_shifter  parallel   df  in_service
0  MV/LV Transformer 2     None      15      16    10.0      15.0       0.4        0.01         0.01    0.01        0.01           0.0     None          NaN      NaN      NaN               NaN              NaN      NaN              False         1  1.0        True
1  MV/LV Transformer 5     None      17      18    10.0      15.0       0.4        0.01         0.01    0.01        0.01           0.0     None          NaN      NaN      NaN               NaN              NaN      NaN              False         1  1.0        True
2  Slack Transformer 0     None      19      20    40.0      70.0      15.0        0.01         0.01    0.01        0.01           0.0     None          NaN      NaN      NaN               NaN              NaN      NaN              False         1  1.0        True
3  Slack Transformer 1     None      21      22    40.0      70.0      15.0        0.01         0.01    0.01        0.01           0.0     None          NaN      NaN      NaN               NaN              NaN      NaN              False         1  1.0        True
--------------------------------------------------

BUS_GEODATA:
        x      y
0    11.0   48.0
1    25.0   38.0
2    51.0   42.0
3     0.0   64.0
4   129.0  138.0
5   105.0   88.0
6   130.0   92.0
7    81.0  115.0
8   103.0  114.0
9    10.0   70.0
10   20.0   80.0
11   40.0   80.0
12   90.0  120.0
13  120.0  120.0
14  120.0  100.0
15    0.0   40.0
16    0.5   39.5
17  100.0  110.0
18  100.5  109.5
19    0.0    0.0
20    0.5   -0.5
21  100.0    0.0
22  100.5   -0.5
--------------------------------------------------

RES_BUS:
       vm_pu  va_degree      p_mw    q_mvar
0   0.992899   0.136487  0.000963  0.000938
1   0.988219   0.242729  0.001338  0.002316
2   0.983945   0.338817  0.002016  0.003375
3   0.989298   0.205648  0.002457  0.003691
4   0.989213   0.152106  0.003552  0.004478
5   0.992956   0.116703  0.002906  0.004968
6   0.991240   0.109706  0.001282  0.000862
7   0.997845   0.024625  0.001498  0.001754
8   0.997879   0.031428  0.001836  0.002713
9   0.999879   0.000570  0.010775  0.009808
10  0.999864   0.000587  0.012215  0.007620
11  0.999853   0.000664  0.013402  0.013196
12  0.999780   0.001881  0.009062  0.006527
13  0.999762   0.002068  0.011548  0.009945
14  0.999751   0.002200  0.011966  0.014022
15  0.999925   0.000470  0.000000  0.000000
16  0.999925   0.000477  0.000000  0.000000
17  0.999785   0.001892  0.000000  0.000000
18  0.999785   0.001900  0.000000  0.000000
19  1.000000   0.000000 -0.043320 -0.046049
20  1.000000   0.000006  0.000000  0.000000
21  1.000000   0.000000 -0.043784 -0.050357
22  1.000000   0.000007  0.000000  0.000000
--------------------------------------------------

RES_LINE:
    p_from_mw  q_from_mvar   p_to_mw  q_to_mvar         pl_mw       ql_mvar  i_from_ka   i_to_ka      i_ka  vm_from_pu  va_from_degree  vm_to_pu  va_to_degree  loading_percent
0    0.043310     0.042049 -0.043307  -0.042046  3.564233e-06  2.779091e-06   0.002323  0.002323  0.002323    1.000000        0.000006  0.999925      0.000470         1.010193
1    0.043774     0.046357 -0.043763  -0.046348  1.093465e-05  8.525929e-06   0.002454  0.002454  0.002454    1.000000        0.000007  0.999785      0.001892         1.066983
2    0.036395     0.030626 -0.036393  -0.030625  1.749870e-06  1.364403e-06   0.001831  0.001831  0.001831    0.999925        0.000470  0.999879      0.000570         0.796075
3    0.009062     0.006527 -0.009062  -0.006527  4.315334e-08  3.364737e-08   0.000430  0.000430  0.000430    0.999785        0.001892  0.999780      0.001881         0.186939
4    0.023515     0.023968 -0.023515  -0.023968  6.167451e-07  4.808863e-07   0.001293  0.001293  0.001293    0.999785        0.001892  0.999762      0.002068         0.562033
5    0.006902     0.010420 -0.006829  -0.010363  7.307541e-05  5.697810e-05   0.018041  0.018041  0.018041    0.999925        0.000477  0.992899      0.136487         7.844115
6    0.004231     0.005863 -0.004191  -0.005832  4.057783e-05  3.163920e-05   0.010439  0.010439  0.010439    0.999785        0.001900  0.992956      0.116703         4.538541
7    0.001502     0.001757 -0.001498  -0.001754  3.609424e-06  2.814328e-06   0.003336  0.003336  0.003336    0.999785        0.001900  0.997845      0.024625         1.450519
8    0.005442     0.007234 -0.005428  -0.007223  1.409602e-05  1.099090e-05   0.013069  0.013069  0.013069    0.999785        0.001900  0.997879      0.031428         5.682173
9   -0.025618    -0.020817  0.025618   0.020817  3.769084e-07  2.938817e-07   0.001271  0.001271  0.001271    0.999864        0.000587  0.999879      0.000570         0.552474
10  -0.013402    -0.013196  0.013402   0.013196  1.730642e-07  1.349410e-07   0.000724  0.000724  0.000724    0.999853        0.000664  0.999864      0.000587         0.314804
11  -0.011966    -0.014022  0.011967   0.014022  1.662759e-07  1.296481e-07   0.000710  0.000710  0.000710    0.999751        0.002200  0.999762      0.002068         0.308568
12  -0.003369    -0.005702  0.003396   0.005723  2.657550e-05  2.072136e-05   0.009674  0.009674  0.009674    0.988219        0.242729  0.992899      0.136487         4.205998
13  -0.002457    -0.003691  0.002470   0.003702  1.341312e-05  1.045843e-05   0.006469  0.006469  0.006469    0.989298        0.205648  0.992899      0.136487         2.812747
14  -0.002016    -0.003375  0.002031   0.003386  1.444079e-05  1.125972e-05   0.005767  0.005767  0.005767    0.983945        0.338817  0.988219      0.242729         2.507380
15   0.003592     0.004510 -0.003552  -0.004478  4.061948e-05  3.167167e-05   0.008340  0.008340  0.008340    0.997879        0.031428  0.989213      0.152106         3.625913
16  -0.001282    -0.000862  0.001284   0.000863  2.114486e-06  1.648699e-06   0.002249  0.002249  0.002249    0.991240        0.109706  0.992956      0.116703         0.978001
--------------------------------------------------

RES_TRAFO:
    p_hv_mw  q_hv_mvar   p_lv_mw  q_lv_mvar    pl_mw  ql_mvar   i_hv_ka   i_lv_ka  vm_hv_pu  va_hv_degree  vm_lv_pu  va_lv_degree  loading_percent
0  0.006912   0.011420 -0.006902  -0.010420  0.00001    0.001  0.000514  0.018041  0.999925      0.000470  0.999925      0.000477         0.133497
1  0.011185   0.015853 -0.011175  -0.014854  0.00001    0.001  0.000747  0.026835  0.999785      0.001892  0.999785      0.001900         0.194060
2  0.043320   0.046049 -0.043310  -0.042049  0.00001    0.004  0.000521  0.002323  1.000000      0.000000  1.000000      0.000006         0.158058
3  0.043784   0.050357 -0.043774  -0.046357  0.00001    0.004  0.000550  0.002454  1.000000      0.000000  1.000000      0.000007         0.166824
--------------------------------------------------

RES_EXT_GRID:
       p_mw    q_mvar
0  0.043320  0.046049
1  0.043784  0.050357
--------------------------------------------------

RES_LOAD:
        p_mw    q_mvar
0   0.000000  0.000000
1   0.000000  0.000000
2   0.000000  0.000000
3   0.000000  0.000000
4   0.000000  0.000000
5   0.000963  0.000938
6   0.000000  0.000000
7   0.000000  0.000000
8   0.000000  0.000000
9   0.000000  0.000000
10  0.000000  0.000000
11  0.001338  0.002316
12  0.000000  0.000000
13  0.000000  0.000000
14  0.000000  0.000000
15  0.000000  0.000000
16  0.000000  0.000000
17  0.002016  0.003375
18  0.000000  0.000000
19  0.000000  0.000000
20  0.000000  0.000000
21  0.000000  0.000000
22  0.000000  0.000000
23  0.002457  0.003691
24  0.000000  0.000000
25  0.000000  0.000000
26  0.000000  0.000000
27  0.000000  0.000000
28  0.000000  0.000000
29  0.003552  0.004478
30  0.000000  0.000000
31  0.000000  0.000000
32  0.000000  0.000000
33  0.000000  0.000000
34  0.000000  0.000000
35  0.002906  0.004968
36  0.000000  0.000000
37  0.000000  0.000000
38  0.000000  0.000000
39  0.000000  0.000000
40  0.000000  0.000000
41  0.001282  0.000862
42  0.000000  0.000000
43  0.000000  0.000000
44  0.000000  0.000000
45  0.000000  0.000000
46  0.000000  0.000000
47  0.001498  0.001754
48  0.000000  0.000000
49  0.000000  0.000000
50  0.000000  0.000000
51  0.000000  0.000000
52  0.000000  0.000000
53  0.001836  0.002713
54  0.000000  0.000000
55  0.000000  0.000000
56  0.000000  0.000000
57  0.000000  0.000000
58  0.000000  0.000000
59  0.010775  0.009808
60  0.000000  0.000000
61  0.000000  0.000000
62  0.000000  0.000000
63  0.000000  0.000000
64  0.000000  0.000000
65  0.012215  0.007620
66  0.000000  0.000000
67  0.000000  0.000000
68  0.000000  0.000000
69  0.000000  0.000000
70  0.000000  0.000000
71  0.013402  0.013196
72  0.000000  0.000000
73  0.000000  0.000000
74  0.000000  0.000000
75  0.000000  0.000000
76  0.000000  0.000000
77  0.009062  0.006527
78  0.000000  0.000000
79  0.000000  0.000000
80  0.000000  0.000000
81  0.000000  0.000000
82  0.000000  0.000000
83  0.011548  0.009945
84  0.000000  0.000000
85  0.000000  0.000000
86  0.000000  0.000000
87  0.000000  0.000000
88  0.000000  0.000000
89  0.011966  0.014022
--------------------------------------------------
